*EXP.DETAILS: UYSBNSLE NSF SESA: SOYBEANS ESTANZUELA GROUP-6 SOWN 15/10, 30/10, 15/11, 30/11, 15/12, 30/12

*GENERAL
@PEOPLE
-99
@ADDRESS
-99
@SITE
-99

*TREATMENTS                        -------------FACTOR LEVELS------------
@N R O C TNAME.................... CU FL SA IC MP MI MF MR MC MT ME MH SM
 1 1 1 0 15oct                      1  1  0  1  1  0  0  0  0  0  0  0  1
 2 1 1 0 15oct                      1  2  0  1  1  0  0  0  0  0  0  0  1
 3 1 1 0 15oct                      1  3  0  1  1  0  0  0  0  0  0  0  1
 4 1 1 0 15oct                      1  4  0  1  1  0  0  0  0  0  0  0  1
 5 1 1 0 15oct                      1  5  0  1  1  0  0  0  0  0  0  0  1
 6 1 1 0 15oct                      1  6  0  1  1  0  0  0  0  0  0  0  1
 7 1 1 0 15oct                      1  7  0  1  1  0  0  0  0  0  0  0  1
 8 1 1 0 15oct                      1  8  0  1  1  0  0  0  0  0  0  0  1
 9 1 1 0 15oct                      1  9  0  1  1  0  0  0  0  0  0  0  1
10 1 1 0 15oct                      1 10  0  1  1  0  0  0  0  0  0  0  1
11 1 1 0 15oct                      1 11  0  1  1  0  0  0  0  0  0  0  1
12 1 1 0 15oct                      1 12  0  1  1  0  0  0  0  0  0  0  1
13 1 1 0 15oct                      1 13  0  1  1  0  0  0  0  0  0  0  1
14 1 1 0 15oct                      1 14  0  1  1  0  0  0  0  0  0  0  1
15 1 1 0 15oct                      1 15  0  1  1  0  0  0  0  0  0  0  1
16 1 1 0 15oct                      1 16  0  1  1  0  0  0  0  0  0  0  1
17 1 1 0 15oct                      1 17  0  1  1  0  0  0  0  0  0  0  1
18 1 1 0 15oct                      1 18  0  1  1  0  0  0  0  0  0  0  1
19 1 1 0 15oct                      1 19  0  1  1  0  0  0  0  0  0  0  1
20 1 1 0 15oct                      1 20  0  1  1  0  0  0  0  0  0  0  1
21 1 1 0 15oct                      1 21  0  1  1  0  0  0  0  0  0  0  1
22 1 1 0 15oct                      1 22  0  1  1  0  0  0  0  0  0  0  1
23 1 1 0 15oct                      1 23  0  1  1  0  0  0  0  0  0  0  1
24 1 1 0 15oct                      1 24  0  1  1  0  0  0  0  0  0  0  1
25 1 1 0 15oct                      1 25  0  1  1  0  0  0  0  0  0  0  1
26 1 1 0 15oct                      1 26  0  1  1  0  0  0  0  0  0  0  1
27 1 1 0 15oct                      1 27  0  1  1  0  0  0  0  0  0  0  1
28 1 1 0 15oct                      1 28  0  1  1  0  0  0  0  0  0  0  1
29 1 1 0 15oct                      1 29  0  1  1  0  0  0  0  0  0  0  1
30 1 1 0 15oct                      1 30  0  1  1  0  0  0  0  0  0  0  1
31 1 1 0 15oct                      1 31  0  1  1  0  0  0  0  0  0  0  1
32 1 1 0 15oct                      1 32  0  1  1  0  0  0  0  0  0  0  1
33 1 1 0 15oct                      1 33  0  1  1  0  0  0  0  0  0  0  1
34 1 1 0 15oct                      1 34  0  1  1  0  0  0  0  0  0  0  1
35 1 1 0 15oct                      1 35  0  2  1  0  0  0  0  0  0  0  1
36 1 1 0 15oct                      1 36  0  2  1  0  0  0  0  0  0  0  1
37 1 1 0 15oct                      1 37  0  2  1  0  0  0  0  0  0  0  1
38 1 1 0 15oct                      1 38  0  2  1  0  0  0  0  0  0  0  1
39 1 1 0 15oct                      1 39  0  2  1  0  0  0  0  0  0  0  1
40 1 1 0 15oct                      1 40  0  2  1  0  0  0  0  0  0  0  1
41 1 1 0 15oct                      1 41  0  2  1  0  0  0  0  0  0  0  1
42 1 1 0 15oct                      1 42  0  2  1  0  0  0  0  0  0  0  1
43 1 1 0 15oct                      1 43  0  2  1  0  0  0  0  0  0  0  1
44 1 1 0 15oct                      1 44  0  2  1  0  0  0  0  0  0  0  1
45 1 1 0 15oct                      1 45  0  2  1  0  0  0  0  0  0  0  1
46 1 1 0 15oct                      1 46  0  2  1  0  0  0  0  0  0  0  1
47 1 1 0 15oct                      1 47  0  2  1  0  0  0  0  0  0  0  1
48 1 1 0 15oct                      1 48  0  2  1  0  0  0  0  0  0  0  1
49 1 1 0 15oct                      1 49  0  2  1  0  0  0  0  0  0  0  1
50 1 1 0 15oct                      1 50  0  2  1  0  0  0  0  0  0  0  1
51 1 1 0 15oct                      1 51  0  2  1  0  0  0  0  0  0  0  1
52 1 1 0 15oct                      1 52  0  2  1  0  0  0  0  0  0  0  1
53 1 1 0 15oct                      1 53  0  2  1  0  0  0  0  0  0  0  1
54 1 1 0 15oct                      1 54  0  2  1  0  0  0  0  0  0  0  1
55 1 1 0 15oct                      1 55  0  2  1  0  0  0  0  0  0  0  1
56 1 1 0 15oct                      1 56  0  2  1  0  0  0  0  0  0  0  1
57 1 1 0 15oct                      1 57  0  2  1  0  0  0  0  0  0  0  1
58 1 1 0 15oct                      1 58  0  2  1  0  0  0  0  0  0  0  1
59 1 1 0 15oct                      1 59  0  2  1  0  0  0  0  0  0  0  1
60 1 1 0 15oct                      1 60  0  2  1  0  0  0  0  0  0  0  1
61 1 1 0 15oct                      1 61  0  2  1  0  0  0  0  0  0  0  1
62 1 1 0 15oct                      1 62  0  2  1  0  0  0  0  0  0  0  1
63 1 1 0 15oct                      1 63  0  2  1  0  0  0  0  0  0  0  1
64 1 1 0 15oct                      1 64  0  2  1  0  0  0  0  0  0  0  1
65 1 1 0 15oct                      1 65  0  2  1  0  0  0  0  0  0  0  1
66 1 1 0 15oct                      1 66  0  2  1  0  0  0  0  0  0  0  1
67 1 1 0 15oct                      1 67  0  2  1  0  0  0  0  0  0  0  1
68 1 1 0 15oct                      1 68  0  3  1  0  0  0  0  0  0  0  1
69 1 1 0 15oct                      1 69  0  3  1  0  0  0  0  0  0  0  1
70 1 1 0 15oct                      1 70  0  3  1  0  0  0  0  0  0  0  1
71 1 1 0 15oct                      1 71  0  3  1  0  0  0  0  0  0  0  1
72 1 1 0 15oct                      1 72  0  3  1  0  0  0  0  0  0  0  1
73 1 1 0 15oct                      1 73  0  3  1  0  0  0  0  0  0  0  1
74 1 1 0 15oct                      1 74  0  3  1  0  0  0  0  0  0  0  1
75 1 1 0 15oct                      1 75  0  3  1  0  0  0  0  0  0  0  1
76 1 1 0 15oct                      1 76  0  3  1  0  0  0  0  0  0  0  1
77 1 1 0 15oct                      1 77  0  3  1  0  0  0  0  0  0  0  1
78 1 1 0 15oct                      1 78  0  3  1  0  0  0  0  0  0  0  1
79 1 1 0 15oct                      1 79  0  3  1  0  0  0  0  0  0  0  1
80 1 1 0 15oct                      1 80  0  3  1  0  0  0  0  0  0  0  1
81 1 1 0 15oct                      1 81  0  3  1  0  0  0  0  0  0  0  1
82 1 1 0 15oct                      1 82  0  3  1  0  0  0  0  0  0  0  1
83 1 1 0 15oct                      1 83  0  3  1  0  0  0  0  0  0  0  1
84 1 1 0 15oct                      1 84  0  3  1  0  0  0  0  0  0  0  1
85 1 1 0 15oct                      1 85  0  3  1  0  0  0  0  0  0  0  1
86 1 1 0 15oct                      1 86  0  3  1  0  0  0  0  0  0  0  1
87 1 1 0 15oct                      1 87  0  3  1  0  0  0  0  0  0  0  1
88 1 1 0 15oct                      1 88  0  3  1  0  0  0  0  0  0  0  1
89 1 1 0 15oct                      1 89  0  3  1  0  0  0  0  0  0  0  1
90 1 1 0 15oct                      1 90  0  3  1  0  0  0  0  0  0  0  1
91 1 1 0 15oct                      1 91  0  3  1  0  0  0  0  0  0  0  1
92 1 1 0 15oct                      1 92  0  3  1  0  0  0  0  0  0  0  1
93 1 1 0 15oct                      1 93  0  3  1  0  0  0  0  0  0  0  1
94 1 1 0 15oct                      1 94  0  3  1  0  0  0  0  0  0  0  1
95 1 1 0 15oct                      1 95  0  3  1  0  0  0  0  0  0  0  1
96 1 1 0 15oct                      1 96  0  3  1  0  0  0  0  0  0  0  1
97 1 1 0 15oct                      1 97  0  3  1  0  0  0  0  0  0  0  1
98 1 1 0 15oct                      1 98  0  3  1  0  0  0  0  0  0  0  1
99 1 1 0 15oct                      1 99  0  3  1  0  0  0  0  0  0  0  1
1001 1 0 15oct                      1100  0  3  1  0  0  0  0  0  0  0  1
1011 1 0 15oct                      1101  0  3  1  0  0  0  0  0  0  0  1

*CULTIVARS
@C CR INGENO CNAME
 1 SB 990006 M GROUP   6

*FIELDS
@L ID_FIELD WSTA....  FLSA  FLOB  FLDT  FLDD  FLDS  FLST SLTX  SLDP  ID_SOIL    FLNAME
 1 UYLE     UYLE         0     0 DR000     0     0 00000 -99    100  UYID003P19 -99
 2 UYLE     0001         0     0 DR000     0     0 00000 -99    100  UYID003P19 -99 
 3 UYLE     0002         0     0 DR000     0     0 00000 -99    100  UYID003P19 -99 
 4 UYLE     0003         0     0 DR000     0     0 00000 -99    100  UYID003P19 -99 
 5 UYLE     0004         0     0 DR000     0     0 00000 -99    100  UYID003P19 -99 
 6 UYLE     0005         0     0 DR000     0     0 00000 -99    100  UYID003P19 -99 
 7 UYLE     0006         0     0 DR000     0     0 00000 -99    100  UYID003P19 -99 
 8 UYLE     0007         0     0 DR000     0     0 00000 -99    100  UYID003P19 -99 
 9 UYLE     0008         0     0 DR000     0     0 00000 -99    100  UYID003P19 -99 
10 UYLE     0009         0     0 DR000     0     0 00000 -99    100  UYID003P19 -99 
11 UYLE     0010         0     0 DR000     0     0 00000 -99    100  UYID003P19 -99 
12 UYLE     0011         0     0 DR000     0     0 00000 -99    100  UYID003P19 -99 
13 UYLE     0012         0     0 DR000     0     0 00000 -99    100  UYID003P19 -99 
14 UYLE     0013         0     0 DR000     0     0 00000 -99    100  UYID003P19 -99 
15 UYLE     0014         0     0 DR000     0     0 00000 -99    100  UYID003P19 -99 
16 UYLE     0015         0     0 DR000     0     0 00000 -99    100  UYID003P19 -99 
17 UYLE     0016         0     0 DR000     0     0 00000 -99    100  UYID003P19 -99 
18 UYLE     0017         0     0 DR000     0     0 00000 -99    100  UYID003P19 -99 
19 UYLE     0018         0     0 DR000     0     0 00000 -99    100  UYID003P19 -99 
20 UYLE     0019         0     0 DR000     0     0 00000 -99    100  UYID003P19 -99 
21 UYLE     0020         0     0 DR000     0     0 00000 -99    100  UYID003P19 -99 
22 UYLE     0021         0     0 DR000     0     0 00000 -99    100  UYID003P19 -99 
23 UYLE     0022         0     0 DR000     0     0 00000 -99    100  UYID003P19 -99 
24 UYLE     0023         0     0 DR000     0     0 00000 -99    100  UYID003P19 -99 
25 UYLE     0024         0     0 DR000     0     0 00000 -99    100  UYID003P19 -99 
26 UYLE     0025         0     0 DR000     0     0 00000 -99    100  UYID003P19 -99 
27 UYLE     0026         0     0 DR000     0     0 00000 -99    100  UYID003P19 -99 
28 UYLE     0027         0     0 DR000     0     0 00000 -99    100  UYID003P19 -99 
29 UYLE     0028         0     0 DR000     0     0 00000 -99    100  UYID003P19 -99 
30 UYLE     0029         0     0 DR000     0     0 00000 -99    100  UYID003P19 -99 
31 UYLE     0030         0     0 DR000     0     0 00000 -99    100  UYID003P19 -99 
32 UYLE     0031         0     0 DR000     0     0 00000 -99    100  UYID003P19 -99 
33 UYLE     0032         0     0 DR000     0     0 00000 -99    100  UYID003P19 -99 
34 UYLE     0033         0     0 DR000     0     0 00000 -99    100  UYID003P19 -99 
35 UYLE     0034         0     0 DR000     0     0 00000 -99    100  UYID005M25 -99 
36 UYLE     0035         0     0 DR000     0     0 00000 -99    100  UYID005M25 -99 
37 UYLE     0036         0     0 DR000     0     0 00000 -99    100  UYID005M25 -99 
38 UYLE     0037         0     0 DR000     0     0 00000 -99    100  UYID005M25 -99 
39 UYLE     0038         0     0 DR000     0     0 00000 -99    100  UYID005M25 -99 
40 UYLE     0039         0     0 DR000     0     0 00000 -99    100  UYID005M25 -99 
41 UYLE     0040         0     0 DR000     0     0 00000 -99    100  UYID005M25 -99 
42 UYLE     0041         0     0 DR000     0     0 00000 -99    100  UYID005M25 -99 
43 UYLE     0042         0     0 DR000     0     0 00000 -99    100  UYID005M25 -99 
44 UYLE     0043         0     0 DR000     0     0 00000 -99    100  UYID005M25 -99 
45 UYLE     0044         0     0 DR000     0     0 00000 -99    100  UYID005M25 -99 
46 UYLE     0045         0     0 DR000     0     0 00000 -99    100  UYID005M25 -99 
47 UYLE     0046         0     0 DR000     0     0 00000 -99    100  UYID005M25 -99 
48 UYLE     0047         0     0 DR000     0     0 00000 -99    100  UYID005M25 -99 
49 UYLE     0048         0     0 DR000     0     0 00000 -99    100  UYID005M25 -99 
50 UYLE     0049         0     0 DR000     0     0 00000 -99    100  UYID005M25 -99 
51 UYLE     0050         0     0 DR000     0     0 00000 -99    100  UYID005M25 -99 
52 UYLE     0051         0     0 DR000     0     0 00000 -99    100  UYID005M25 -99 
53 UYLE     0052         0     0 DR000     0     0 00000 -99    100  UYID005M25 -99 
54 UYLE     0053         0     0 DR000     0     0 00000 -99    100  UYID005M25 -99 
55 UYLE     0054         0     0 DR000     0     0 00000 -99    100  UYID005M25 -99 
56 UYLE     0055         0     0 DR000     0     0 00000 -99    100  UYID005M25 -99 
57 UYLE     0056         0     0 DR000     0     0 00000 -99    100  UYID005M25 -99 
58 UYLE     0057         0     0 DR000     0     0 00000 -99    100  UYID005M25 -99 
59 UYLE     0058         0     0 DR000     0     0 00000 -99    100  UYID005M25 -99 
60 UYLE     0059         0     0 DR000     0     0 00000 -99    100  UYID005M25 -99 
61 UYLE     0060         0     0 DR000     0     0 00000 -99    100  UYID005M25 -99 
62 UYLE     0061         0     0 DR000     0     0 00000 -99    100  UYID005M25 -99 
63 UYLE     0062         0     0 DR000     0     0 00000 -99    100  UYID005M25 -99 
64 UYLE     0063         0     0 DR000     0     0 00000 -99    100  UYID005M25 -99 
65 UYLE     0064         0     0 DR000     0     0 00000 -99    100  UYID005M25 -99 
66 UYLE     0065         0     0 DR000     0     0 00000 -99    100  UYID005M25 -99 
67 UYLE     0066         0     0 DR000     0     0 00000 -99    100  UYID005M25 -99 
68 UYLE     0067         0     0 DR000     0     0 00000 -99    100  UYSD004P23 -99 
69 UYLE     0068         0     0 DR000     0     0 00000 -99    100  UYSD004P23 -99 
70 UYLE     0069         0     0 DR000     0     0 00000 -99    100  UYSD004P23 -99 
71 UYLE     0070         0     0 DR000     0     0 00000 -99    100  UYSD004P23 -99 
72 UYLE     0071         0     0 DR000     0     0 00000 -99    100  UYSD004P23 -99 
73 UYLE     0072         0     0 DR000     0     0 00000 -99    100  UYSD004P23 -99 
74 UYLE     0073         0     0 DR000     0     0 00000 -99    100  UYSD004P23 -99 
75 UYLE     0074         0     0 DR000     0     0 00000 -99    100  UYSD004P23 -99 
76 UYLE     0075         0     0 DR000     0     0 00000 -99    100  UYSD004P23 -99 
77 UYLE     0076         0     0 DR000     0     0 00000 -99    100  UYSD004P23 -99 
78 UYLE     0077         0     0 DR000     0     0 00000 -99    100  UYSD004P23 -99 
79 UYLE     0078         0     0 DR000     0     0 00000 -99    100  UYSD004P23 -99 
80 UYLE     0079         0     0 DR000     0     0 00000 -99    100  UYSD004P23 -99 
81 UYLE     0080         0     0 DR000     0     0 00000 -99    100  UYSD004P23 -99 
82 UYLE     0081         0     0 DR000     0     0 00000 -99    100  UYSD004P23 -99
83 UYLE     0082         0     0 DR000     0     0 00000 -99    100  UYSD004P23 -99
84 UYLE     0083         0     0 DR000     0     0 00000 -99    100  UYSD004P23 -99
85 UYLE     0084         0     0 DR000     0     0 00000 -99    100  UYSD004P23 -99
86 UYLE     0085         0     0 DR000     0     0 00000 -99    100  UYSD004P23 -99
87 UYLE     0086         0     0 DR000     0     0 00000 -99    100  UYSD004P23 -99
88 UYLE     0087         0     0 DR000     0     0 00000 -99    100  UYSD004P23 -99
89 UYLE     0088         0     0 DR000     0     0 00000 -99    100  UYSD004P23 -99
90 UYLE     0089         0     0 DR000     0     0 00000 -99    100  UYSD004P23 -99
91 UYLE     0090         0     0 DR000     0     0 00000 -99    100  UYSD004P23 -99
92 UYLE     0091         0     0 DR000     0     0 00000 -99    100  UYSD004P23 -99
93 UYLE     0092         0     0 DR000     0     0 00000 -99    100  UYSD004P23 -99
94 UYLE     0093         0     0 DR000     0     0 00000 -99    100  UYSD004P23 -99
95 UYLE     0094         0     0 DR000     0     0 00000 -99    100  UYSD004P23 -99
96 UYLE     0095         0     0 DR000     0     0 00000 -99    100  UYSD004P23 -99
97 UYLE     0096         0     0 DR000     0     0 00000 -99    100  UYSD004P23 -99
98 UYLE     0097         0     0 DR000     0     0 00000 -99    100  UYSD004P23 -99
99 UYLE     0098         0     0 DR000     0     0 00000 -99    100  UYSD004P23 -99
100UYLE     0099         0     0 DR000     0     0 00000 -99    100  UYSD004P23 -99
101UYLE     0100         0     0 DR000     0     0 00000 -99    100  UYSD004P23 -99 

@L ...........XCRD ...........YCRD .....ELEV .............AREA .SLEN .FLWR .SLAS
 1               0               0         0                 0     0     0     0
 2               0               0         0                 0     0     0     0
 3               0               0         0                 0     0     0     0
 4               0               0         0                 0     0     0     0
 5               0               0         0                 0     0     0     0
 6               0               0         0                 0     0     0     0
 7               0               0         0                 0     0     0     0
 8               0               0         0                 0     0     0     0
 9               0               0         0                 0     0     0     0
10               0               0         0                 0     0     0     0
11               0               0         0                 0     0     0     0
12               0               0         0                 0     0     0     0
13               0               0         0                 0     0     0     0
14               0               0         0                 0     0     0     0
15               0               0         0                 0     0     0     0
16               0               0         0                 0     0     0     0
17               0               0         0                 0     0     0     0
18               0               0         0                 0     0     0     0
19               0               0         0                 0     0     0     0
20               0               0         0                 0     0     0     0
21               0               0         0                 0     0     0     0
22               0               0         0                 0     0     0     0
23               0               0         0                 0     0     0     0
24               0               0         0                 0     0     0     0
25               0               0         0                 0     0     0     0
26               0               0         0                 0     0     0     0
27               0               0         0                 0     0     0     0
28               0               0         0                 0     0     0     0
29               0               0         0                 0     0     0     0
30               0               0         0                 0     0     0     0
31               0               0         0                 0     0     0     0
32               0               0         0                 0     0     0     0
33               0               0         0                 0     0     0     0
34               0               0         0                 0     0     0     0
35               0               0         0                 0     0     0     0
36               0               0         0                 0     0     0     0
37               0               0         0                 0     0     0     0
38               0               0         0                 0     0     0     0
39               0               0         0                 0     0     0     0
40               0               0         0                 0     0     0     0
41               0               0         0                 0     0     0     0
42               0               0         0                 0     0     0     0
43               0               0         0                 0     0     0     0
44               0               0         0                 0     0     0     0
45               0               0         0                 0     0     0     0
46               0               0         0                 0     0     0     0
47               0               0         0                 0     0     0     0
48               0               0         0                 0     0     0     0
49               0               0         0                 0     0     0     0
50               0               0         0                 0     0     0     0
51               0               0         0                 0     0     0     0
52               0               0         0                 0     0     0     0
53               0               0         0                 0     0     0     0
54               0               0         0                 0     0     0     0
55               0               0         0                 0     0     0     0
56               0               0         0                 0     0     0     0
57               0               0         0                 0     0     0     0
58               0               0         0                 0     0     0     0
59               0               0         0                 0     0     0     0
60               0               0         0                 0     0     0     0
61               0               0         0                 0     0     0     0
62               0               0         0                 0     0     0     0
63               0               0         0                 0     0     0     0
64               0               0         0                 0     0     0     0
65               0               0         0                 0     0     0     0
66               0               0         0                 0     0     0     0
67               0               0         0                 0     0     0     0
68               0               0         0                 0     0     0     0
69               0               0         0                 0     0     0     0
70               0               0         0                 0     0     0     0
71               0               0         0                 0     0     0     0
72               0               0         0                 0     0     0     0
73               0               0         0                 0     0     0     0
74               0               0         0                 0     0     0     0
75               0               0         0                 0     0     0     0
76               0               0         0                 0     0     0     0
77               0               0         0                 0     0     0     0
78               0               0         0                 0     0     0     0
79               0               0         0                 0     0     0     0
80               0               0         0                 0     0     0     0
81               0               0         0                 0     0     0     0
82               0               0         0                 0     0     0     0
83               0               0         0                 0     0     0     0
84               0               0         0                 0     0     0     0
85               0               0         0                 0     0     0     0
86               0               0         0                 0     0     0     0
87               0               0         0                 0     0     0     0
88               0               0         0                 0     0     0     0
89               0               0         0                 0     0     0     0
90               0               0         0                 0     0     0     0
91               0               0         0                 0     0     0     0
92               0               0         0                 0     0     0     0
93               0               0         0                 0     0     0     0
94               0               0         0                 0     0     0     0
95               0               0         0                 0     0     0     0
96               0               0         0                 0     0     0     0
97               0               0         0                 0     0     0     0
98               0               0         0                 0     0     0     0
99               0               0         0                 0     0     0     0
100              0               0         0                 0     0     0     0
101              0               0         0                 0     0     0     0

*INITIAL CONDITIONS
@C   PCR ICDAT  ICRT  ICND  ICRN  ICRE  ICWD ICRES ICREN ICREP ICRIP ICRID ICNAME
 1    SB 08279   -99   -99     1     1   -99   -99   -99   -99   -99   -99 -99
@C  ICBL  SH2O  SNH4  SNO3
 1    25  .358   1.5  13.1
 1    37  .364   1.5  13.1
 1    68  .338   1.5  13.1
 1    80  .321   1.5  13.1
 1    88  .310   1.5  13.1
 1   100  .247   1.5  13.1
@C   PCR ICDAT  ICRT  ICND  ICRN  ICRE  ICWD ICRES ICREN ICREP ICRIP ICRID ICNAME
 2    SB 08279   -99   -99     1     1   -99   -99   -99   -99   -99   -99 -99
@C  ICBL  SH2O  SNH4  SNO3
 2    16  .256   1.5  13.1
 2    28  .269   1.5  13.1
 2    45  .308   1.5  13.1
 2    70  .304   1.5  13.1
 2   110  .284   1.5  13.1
 2   130  .287   1.5  13.1
 2   180  .266   1.5  13.1
@C   PCR ICDAT  ICRT  ICND  ICRN  ICRE  ICWD ICRES ICREN ICREP ICRIP ICRID ICNAME
 3    SB 08279   -99   -99     1     1   -99   -99   -99   -99   -99   -99 -99
@C  ICBL  SH2O  SNH4  SNO3
 3    26  .354   1.5  13.1
 3    56  .352   1.5  13.1
 3    91  .331   1.5  13.1
 3   125  .278   1.5  13.1
 3   137  .194   1.5  13.1
*PLANTING DETAILS
@P PDATE EDATE  PPOP  PPOE  PLME  PLDS  PLRS  PLRD  PLDP  PLWT  PAGE  PENV  PLPH  SPRL                        PLNAME
 1 08305   -99    35    35     S     R     3   -99   2.5   -99   -99   -99   -99   -99                        30102000

*SIMULATION CONTROLS
@N GENERAL     NYERS NREPS START SDATE RSEED SNAME....................
 1 GE              1     1     S 08279  2150 15102000
@N OPTIONS     WATER NITRO SYMBI PHOSP POTAS DISES  CHEM  TILL
 1 OP              Y     N     Y     N     N     N     N     N
@N METHODS     WTHER INCON LIGHT EVAPO INFIL PHOTO HYDRO NSWIT MESOM
 1 ME              M     M     E     R     S     C     R     1     G
@N MANAGEMENT  PLANT IRRIG FERTI RESID HARVS
 1 MA              R     N     N     N     M
@N OUTPUTS     FNAME OVVEW SUMRY FROPT GROUT CAOUT WAOUT NIOUT MIOUT DIOUT  LONG CHOUT OPOUT
 1 OU              Y     N     Y     1     Y     N     Y     Y     N     N     Y     N     N

@  AUTOMATIC MANAGEMENT
@N PLANTING    PFRST PLAST PH2OL PH2OU PH2OD PSTMX PSTMN
 1 PL          66289 66289    40   100    30    40    10
@N IRRIGATION  IMDEP ITHRL ITHRU IROFF IMETH IRAMT IREFF
 1 IR             30    50   100 GS000 IR001    10     1
@N NITROGEN    NMDEP NMTHR NAMNT NCODE NAOFF
 1 NI             30    50    25 FE001 GS000
@N RESIDUES    RIPCN RTIME RIDEP
 1 RE            100     1    20
@N HARVEST     HFRST HLAST HPCNP HPCNR
 1 HA              0 00289   100     0






















































































































